*Differential Amplifier and Voltage Follower

.subckt DIFFAMP 9 10 1 13 16

.include TSMC_Model.txt

Vb1  12 13  1
Vb2  17 13  1 
VGG1  1  8  2
VGG2  1  7  2

Ma  11 12  13 13 CMOSN
Mb1  5  9  11 13 CMOSN
Mb2  6 10  11 13 CMOSN
Mc1  2  7   5 13 CMOSN
Mc2  4  8   6 13 CMOSN
Md1  2  2  14  1 CMOSP
Md2  4  2  15  1 CMOSP
Me1 14 14   1  1 CMOSP
Me2 15 14   1  1 CMOSP
Ms1  1  4  16 13 CMOSN w = 30u l = 1u
Ms2  16 17 13 13 CMOSN w = 30u l = 1u

.ends DIFFAMP
